*SPEF "1481-1998"
*DESIGN "cic_filter"
*DATE "Tue May  2 16:34:31 2023"
*VENDOR "Synopsys, Inc."
*PROGRAM "icc_shell"
*VERSION "O-2018.06-SP1"
*DESIGN_FLOW "PIN_CAP NONE"
*DIVIDER /
*DELIMITER :
*BUS_DELIMITER [ ]
*T_UNIT 1 NS
*C_UNIT 1 FF
*R_UNIT 1 OHM
*L_UNIT 1 HENRY

*NAME_MAP
*1 out[5]
*2 out[4]
*3 out[3]
*4 out[2]
*5 out[1]
*6 out[0]
*7 VDD
*8 VSS
*9 out[13]
*10 out[12]
*11 out[11]
*12 out[10]
*13 out[9]
*14 out[8]
*15 out[7]
*16 out[6]
*17 in
*18 rst_n
*19 clk
*20 out[18]
*21 out[17]
*22 out[16]
*23 out[15]
*24 out[14]
*25 sum2_nxt\[0\]
*26 sum2_reg\[0\]
*27 add_13/U8
*28 sum2\[0\]
*29 add_14/U2
*30 add_14/U1
*31 U70
*32 sum1\[0\]
*33 sum1_reg\[0\]
*34 U74
*35 add_13/n1
*36 add_13/U1
*37 add_13/U1_1
*38 sum2_nxt\[17\]
*39 sum2_reg\[17\]
*40 add_13/U12
*41 sum2\[17\]
*42 add_13/U1_17
*43 add_14/U1_17
*44 sum1\[17\]
*45 U30
*46 U29
*47 sum1_reg\[17\]
*48 add_13/carry\[17\]
*49 add_13/U1_16
*50 add_13/carry\[18\]
*51 add_13/U1_18
*52 sum2_nxt\[16\]
*53 sum2_reg\[16\]
*54 add_13/U9
*55 sum2\[16\]
*56 add_14/U1_16
*57 sum1\[16\]
*58 U32
*59 U31
*60 sum1_reg\[16\]
*61 add_13/carry\[16\]
*62 add_13/U1_15
*63 sum2_nxt\[15\]
*64 sum2_reg\[15\]
*65 add_13/U22
*66 sum2\[15\]
*67 add_14/U1_15
*68 sum1\[15\]
*69 U34
*70 U33
*71 sum1_reg\[15\]
*72 add_13/carry\[15\]
*73 add_13/U1_14
*74 sum2_nxt\[14\]
*75 sum2_reg\[14\]
*76 add_13/U19
*77 sum2\[14\]
*78 add_14/U1_14
*79 sum1\[14\]
*80 U36
*81 U35
*82 sum1_reg\[14\]
*83 add_13/carry\[14\]
*84 add_13/U1_13
*85 sum2_nxt\[13\]
*86 sum2_reg\[13\]
*87 add_13/U18
*88 sum2\[13\]
*89 add_14/U1_13
*90 sum1\[13\]
*91 U38
*92 U37
*93 sum1_reg\[13\]
*94 add_13/carry\[13\]
*95 add_13/U1_12
*96 sum2_nxt\[12\]
*97 sum2_reg\[12\]
*98 add_13/U15
*99 sum2\[12\]
*100 add_14/U1_12
*101 sum1\[12\]
*102 U40
*103 U39
*104 sum1_reg\[12\]
*105 add_13/carry\[12\]
*106 add_13/U1_11
*107 sum2_nxt\[11\]
*108 sum2_reg\[11\]
*109 add_13/U29
*110 sum2\[11\]
*111 add_14/U1_11
*112 sum1\[11\]
*113 U42
*114 U41
*115 sum1_reg\[11\]
*116 add_13/carry\[11\]
*117 add_13/U1_10
*118 sum2_nxt\[10\]
*119 sum2_reg\[10\]
*120 add_13/U28
*121 sum2\[10\]
*122 add_14/U1_10
*123 sum1\[10\]
*124 U44
*125 U43
*126 sum1_reg\[10\]
*127 add_13/carry\[10\]
*128 add_13/U1_9
*129 sum2_nxt\[9\]
*130 sum2_reg\[9\]
*131 add_13/U26
*132 sum2\[9\]
*133 add_14/U1_9
*134 sum1\[9\]
*135 U46
*136 U45
*137 sum1_reg\[9\]
*138 add_13/carry\[9\]
*139 add_13/U1_8
*140 sum2_nxt\[8\]
*141 sum2_reg\[8\]
*142 add_13/U24
*143 sum2\[8\]
*144 add_14/U1_8
*145 sum1\[8\]
*146 U48
*147 U47
*148 sum1_reg\[8\]
*149 add_13/carry\[8\]
*150 add_13/U1_7
*151 sum2_nxt\[7\]
*152 sum2_reg\[7\]
*153 add_13/U38
*154 sum2\[7\]
*155 add_14/U1_7
*156 sum1\[7\]
*157 U50
*158 U49
*159 sum1_reg\[7\]
*160 add_13/carry\[7\]
*161 add_13/U1_6
*162 sum2_nxt\[6\]
*163 sum2_reg\[6\]
*164 add_13/U35
*165 sum2\[6\]
*166 add_14/U1_6
*167 sum1\[6\]
*168 U52
*169 U51
*170 sum1_reg\[6\]
*171 add_13/carry\[6\]
*172 add_13/U1_5
*173 sum2_nxt\[5\]
*174 sum2_reg\[5\]
*175 add_13/U33
*176 sum2\[5\]
*177 add_14/U1_5
*178 sum1\[5\]
*179 U54
*180 U53
*181 sum1_reg\[5\]
*182 add_13/carry\[5\]
*183 add_13/U1_4
*184 sum2_nxt\[4\]
*185 sum2_reg\[4\]
*186 add_13/U31
*187 sum2\[4\]
*188 add_14/U1_4
*189 sum1\[4\]
*190 U56
*191 U55
*192 sum1_reg\[4\]
*193 add_13/carry\[4\]
*194 add_13/U1_3
*195 sum2_nxt\[3\]
*196 sum2_reg\[3\]
*197 add_13/U6
*198 sum2\[3\]
*199 add_14/U1_3
*200 sum1\[3\]
*201 U58
*202 U57
*203 sum1_reg\[3\]
*204 add_13/carry\[3\]
*205 add_13/U1_2
*206 sum2_nxt\[2\]
*207 sum2_reg\[2\]
*208 add_13/U4
*209 sum2\[2\]
*210 add_14/U1_2
*211 sum1\[2\]
*212 sum1_reg\[2\]
*213 U67
*214 add_13/carry\[2\]
*215 sum2_nxt\[1\]
*216 sum2_reg\[1\]
*217 add_13/U3
*218 sum2\[1\]
*219 add_14/U1_1
*220 U65
*221 sum1\[1\]
*222 sum1_reg\[1\]
*223 U72
*224 sum2_nxt\[18\]
*225 sum2_reg\[18\]
*226 add_13/U13
*227 sum2\[18\]
*228 add_14/U1_18
*229 sum1\[18\]
*230 sum1_reg\[18\]
*231 U166
*232 sum3_nxt\[0\]
*233 sub_45/U2
*234 sub_45/U1
*235 sum3_reg\[0\]
*236 sub1_reg\[0\]
*237 add_14/U7
*238 sum3\[0\]
*239 add_14/n1
*240 sum3_nxt\[18\]
*241 sub_45/U2_18
*242 sum3_reg\[18\]
*243 sub1_reg\[18\]
*244 add_14/U17
*245 sum3\[18\]
*246 add_14/carry\[18\]
*247 sum3_nxt\[17\]
*248 sub_45/U2_17
*249 sum3_reg\[17\]
*250 sub1_reg\[17\]
*251 add_14/U18
*252 sum3\[17\]
*253 add_14/carry\[17\]
*254 sum3_nxt\[6\]
*255 sub_45/U2_6
*256 sum3_reg\[6\]
*257 sub1_reg\[6\]
*258 add_14/U15
*259 sum3\[6\]
*260 add_14/carry\[6\]
*261 add_14/carry\[7\]
*262 sum3_nxt\[5\]
*263 sub_45/U2_5
*264 sum3_reg\[5\]
*265 sub1_reg\[5\]
*266 add_14/U13
*267 sum3\[5\]
*268 add_14/carry\[5\]
*269 sum3_nxt\[4\]
*270 sub_45/U2_4
*271 sum3_reg\[4\]
*272 sub1_reg\[4\]
*273 add_14/U11
*274 sum3\[4\]
*275 add_14/carry\[4\]
*276 sum3_nxt\[3\]
*277 sub_45/U2_3
*278 sum3_reg\[3\]
*279 sub1_reg\[3\]
*280 add_14/U3
*281 sum3\[3\]
*282 add_14/carry\[3\]
*283 sum3_nxt\[2\]
*284 sub_45/U2_2
*285 sum3_reg\[2\]
*286 sub1_reg\[2\]
*287 add_14/U5
*288 sum3\[2\]
*289 add_14/carry\[2\]
*290 sum3_nxt\[1\]
*291 sub_45/U2_1
*292 sum3_reg\[1\]
*293 sub1_reg\[1\]
*294 add_14/U6
*295 sum3\[1\]
*296 sum3_nxt\[16\]
*297 sub_45/U2_16
*298 sum3_reg\[16\]
*299 sub1_reg\[16\]
*300 add_14/U19
*301 sum3\[16\]
*302 add_14/carry\[16\]
*303 sum3_nxt\[15\]
*304 sub_45/U2_15
*305 sum3_reg\[15\]
*306 sub1_reg\[15\]
*307 add_14/U20
*308 sum3\[15\]
*309 add_14/carry\[15\]
*310 sum3_nxt\[14\]
*311 sub_45/U2_14
*312 sum3_reg\[14\]
*313 sub1_reg\[14\]
*314 add_14/U25
*315 sum3\[14\]
*316 add_14/carry\[14\]
*317 sum3_nxt\[13\]
*318 sub_45/U2_13
*319 sum3_reg\[13\]
*320 sub1_reg\[13\]
*321 add_14/U26
*322 sum3\[13\]
*323 add_14/carry\[13\]
*324 sum3_nxt\[12\]
*325 sub_45/U2_12
*326 sum3_reg\[12\]
*327 sub1_reg\[12\]
*328 add_14/U27
*329 sum3\[12\]
*330 add_14/carry\[12\]
*331 sum3_nxt\[11\]
*332 sub_45/U2_11
*333 sum3_reg\[11\]
*334 sub1_reg\[11\]
*335 add_14/U28
*336 sum3\[11\]
*337 add_14/carry\[11\]
*338 sum3_nxt\[10\]
*339 sub_45/U2_10
*340 sum3_reg\[10\]
*341 sub1_reg\[10\]
*342 add_14/U33
*343 sum3\[10\]
*344 add_14/carry\[10\]
*345 sum3_nxt\[9\]
*346 sub_45/U2_9
*347 sum3_reg\[9\]
*348 sub1_reg\[9\]
*349 add_14/U35
*350 sum3\[9\]
*351 add_14/carry\[9\]
*352 sum3_nxt\[8\]
*353 sub_45/U2_8
*354 sum3_reg\[8\]
*355 sub1_reg\[8\]
*356 add_14/U37
*357 sum3\[8\]
*358 add_14/carry\[8\]
*359 sum3_nxt\[7\]
*360 sub_45/U2_7
*361 sum3_reg\[7\]
*362 sub1_reg\[7\]
*363 add_14/U39
*364 sum3\[7\]
*365 sub_45/n20
*366 sub_45/U21
*367 sub1\[0\]
*368 sub_45/n2
*369 sub_45/U20
*370 sub1\[18\]
*371 sub_45/n19
*372 sub_45/U19
*373 sub1\[1\]
*374 sub_45/n18
*375 sub_45/U18
*376 sub1\[2\]
*377 sub_45/n17
*378 sub_45/U17
*379 sub1\[3\]
*380 sub_45/n16
*381 sub_45/U16
*382 sub1\[4\]
*383 sub_45/n15
*384 sub_45/U15
*385 sub1\[5\]
*386 sub_45/n14
*387 sub_45/U14
*388 sub1\[6\]
*389 sub_45/n13
*390 sub_45/U13
*391 sub1\[7\]
*392 sub_45/n12
*393 sub_45/U12
*394 sub1\[8\]
*395 sub_45/n11
*396 sub_45/U11
*397 sub1\[9\]
*398 sub_45/n10
*399 sub_45/U10
*400 sub1\[10\]
*401 sub_45/n9
*402 sub_45/U9
*403 sub1\[11\]
*404 sub_45/n8
*405 sub_45/U8
*406 sub1\[12\]
*407 sub_45/n7
*408 sub_45/U7
*409 sub1\[13\]
*410 sub_45/n6
*411 sub_45/U6
*412 sub1\[14\]
*413 sub_45/n5
*414 sub_45/U5
*415 sub1\[15\]
*416 sub_45/n4
*417 sub_45/U4
*418 sub1\[16\]
*419 sub_45/n3
*420 sub_45/U3
*421 sub1\[17\]
*422 N1
*423 sub1_nxt_reg\[0\]
*424 sub_45/U42
*425 sub_45/n1
*426 N18
*427 sub1_nxt_reg\[17\]
*428 sub_45/U48
*429 sub_45/carry\[17\]
*430 sub_45/carry\[18\]
*431 N17
*432 sub1_nxt_reg\[16\]
*433 sub_45/U46
*434 sub_45/carry\[16\]
*435 N16
*436 sub1_nxt_reg\[15\]
*437 sub_45/U44
*438 sub_45/carry\[15\]
*439 N15
*440 sub1_nxt_reg\[14\]
*441 sub_45/U58
*442 sub_45/carry\[14\]
*443 N14
*444 sub1_nxt_reg\[13\]
*445 sub_45/U56
*446 sub_45/carry\[13\]
*447 N13
*448 sub1_nxt_reg\[12\]
*449 sub_45/U54
*450 sub_45/carry\[12\]
*451 N12
*452 sub1_nxt_reg\[11\]
*453 sub_45/U52
*454 sub_45/carry\[11\]
*455 N11
*456 sub1_nxt_reg\[10\]
*457 sub_45/U28
*458 sub_45/carry\[10\]
*459 N10
*460 sub1_nxt_reg\[9\]
*461 sub_45/U26
*462 sub_45/carry\[9\]
*463 N9
*464 sub1_nxt_reg\[8\]
*465 sub_45/U24
*466 sub_45/carry\[8\]
*467 N8
*468 sub1_nxt_reg\[7\]
*469 sub_45/U22
*470 sub_45/carry\[7\]
*471 N7
*472 sub1_nxt_reg\[6\]
*473 sub_45/U36
*474 sub_45/carry\[6\]
*475 N6
*476 sub1_nxt_reg\[5\]
*477 sub_45/U34
*478 sub_45/carry\[5\]
*479 N5
*480 sub1_nxt_reg\[4\]
*481 sub_45/U32
*482 sub_45/carry\[4\]
*483 N4
*484 sub1_nxt_reg\[3\]
*485 sub_45/U30
*486 sub_45/carry\[3\]
*487 N3
*488 sub1_nxt_reg\[2\]
*489 sub_45/U40
*490 sub_45/carry\[2\]
*491 N2
*492 sub1_nxt_reg\[1\]
*493 sub_45/U38
*494 N19
*495 sub1_nxt_reg\[18\]
*496 sub_45/U50
*497 N20
*498 sub2_nxt_reg\[0\]
*499 sub_46/U42
*500 sub1_nxt\[0\]
*501 U145
*502 sub_46/n2
*503 sub_46/U21
*504 sub_46/U2
*505 sub_46/U1
*506 sub_46/n3
*507 sub_46/U20
*508 sub_46/U2_1
*509 sub2\[1\]
*510 sub2_reg\[1\]
*511 sub_46/n20
*512 sub_46/U19
*513 sub_46/U2_18
*514 sub2\[18\]
*515 sub2_reg\[18\]
*516 sub_46/n4
*517 sub_46/U18
*518 sub_46/U2_2
*519 sub2\[2\]
*520 sub2_reg\[2\]
*521 sub_46/n5
*522 sub_46/U17
*523 sub_46/U2_3
*524 sub2\[3\]
*525 sub2_reg\[3\]
*526 sub_46/n6
*527 sub_46/U16
*528 sub_46/U2_4
*529 sub2\[4\]
*530 sub2_reg\[4\]
*531 sub_46/n7
*532 sub_46/U15
*533 sub_46/U2_5
*534 sub2\[5\]
*535 sub2_reg\[5\]
*536 sub_46/n8
*537 sub_46/U14
*538 sub_46/U2_6
*539 sub2\[6\]
*540 sub2_reg\[6\]
*541 sub_46/n9
*542 sub_46/U13
*543 sub_46/U2_7
*544 sub2\[7\]
*545 sub2_reg\[7\]
*546 sub_46/n10
*547 sub_46/U12
*548 sub_46/U2_8
*549 sub2\[8\]
*550 sub2_reg\[8\]
*551 sub_46/n11
*552 sub_46/U11
*553 sub_46/U2_9
*554 sub2\[9\]
*555 sub2_reg\[9\]
*556 sub_46/n12
*557 sub_46/U10
*558 sub_46/U2_10
*559 sub2\[10\]
*560 sub2_reg\[10\]
*561 sub_46/n13
*562 sub_46/U9
*563 sub_46/U2_11
*564 sub2\[11\]
*565 sub2_reg\[11\]
*566 sub_46/n14
*567 sub_46/U8
*568 sub_46/U2_12
*569 sub2\[12\]
*570 sub2_reg\[12\]
*571 sub_46/n15
*572 sub_46/U7
*573 sub_46/U2_13
*574 sub2\[13\]
*575 sub2_reg\[13\]
*576 sub_46/n16
*577 sub_46/U6
*578 sub_46/U2_14
*579 sub2\[14\]
*580 sub2_reg\[14\]
*581 sub_46/n17
*582 sub_46/U5
*583 sub_46/U2_15
*584 sub2\[15\]
*585 sub2_reg\[15\]
*586 sub_46/n18
*587 sub_46/U4
*588 sub_46/U2_16
*589 sub2\[16\]
*590 sub2_reg\[16\]
*591 sub_46/n19
*592 sub_46/U3
*593 sub_46/U2_17
*594 sub2\[17\]
*595 sub2_reg\[17\]
*596 sub2\[0\]
*597 sub2_reg\[0\]
*598 sub_46/n1
*599 N37
*600 sub2_nxt_reg\[17\]
*601 sub_46/U48
*602 sub1_nxt\[17\]
*603 U189
*604 sub_46/carry\[17\]
*605 sub_46/carry\[18\]
*606 N36
*607 sub2_nxt_reg\[16\]
*608 sub_46/U46
*609 sub1_nxt\[16\]
*610 U187
*611 sub_46/carry\[16\]
*612 N35
*613 sub2_nxt_reg\[15\]
*614 sub_46/U44
*615 sub1_nxt\[15\]
*616 U200
*617 sub_46/carry\[15\]
*618 N34
*619 sub2_nxt_reg\[14\]
*620 sub_46/U58
*621 sub1_nxt\[14\]
*622 U221
*623 sub_46/carry\[14\]
*624 N33
*625 sub2_nxt_reg\[13\]
*626 sub_46/U56
*627 sub1_nxt\[13\]
*628 U208
*629 sub_46/carry\[13\]
*630 N32
*631 sub2_nxt_reg\[12\]
*632 sub_46/U54
*633 sub1_nxt\[12\]
*634 U220
*635 sub_46/carry\[12\]
*636 N31
*637 sub2_nxt_reg\[11\]
*638 sub_46/U52
*639 sub1_nxt\[11\]
*640 U219
*641 sub_46/carry\[11\]
*642 N30
*643 sub2_nxt_reg\[10\]
*644 sub_46/U28
*645 sub1_nxt\[10\]
*646 U127
*647 sub_46/carry\[10\]
*648 N29
*649 sub2_nxt_reg\[9\]
*650 sub_46/U26
*651 sub1_nxt\[9\]
*652 U117
*653 sub_46/carry\[9\]
*654 N28
*655 sub2_nxt_reg\[8\]
*656 sub_46/U24
*657 sub1_nxt\[8\]
*658 U115
*659 sub_46/carry\[8\]
*660 N27
*661 sub2_nxt_reg\[7\]
*662 sub_46/U22
*663 sub1_nxt\[7\]
*664 U223
*665 sub_46/carry\[7\]
*666 N26
*667 sub2_nxt_reg\[6\]
*668 sub_46/U36
*669 sub1_nxt\[6\]
*670 U143
*671 sub_46/carry\[6\]
*672 N25
*673 sub2_nxt_reg\[5\]
*674 sub_46/U34
*675 sub1_nxt\[5\]
*676 U131
*677 sub_46/carry\[5\]
*678 N24
*679 sub2_nxt_reg\[4\]
*680 sub_46/U32
*681 sub1_nxt\[4\]
*682 U142
*683 sub_46/carry\[4\]
*684 N23
*685 sub2_nxt_reg\[3\]
*686 sub_46/U30
*687 sub1_nxt\[3\]
*688 U141
*689 sub_46/carry\[3\]
*690 N22
*691 sub2_nxt_reg\[2\]
*692 sub_46/U40
*693 sub1_nxt\[2\]
*694 U156
*695 sub_46/carry\[2\]
*696 N38
*697 sub2_nxt_reg\[18\]
*698 sub_46/U50
*699 sub1_nxt\[18\]
*700 U203
*701 N21
*702 sub2_nxt_reg\[1\]
*703 sub_46/U38
*704 sub1_nxt\[1\]
*705 U155
*706 N39
*707 sub3_nxt_reg\[0\]
*708 sub_47/U22
*709 sub2_nxt\[0\]
*710 U148
*711 sub_47/n2
*712 sub_47/U2
*713 sub_47/U24
*714 sub_47/n3
*715 sub_47/U20
*716 sub_47/U23
*717 sub3\[1\]
*718 sub3_reg\[1\]
*719 sub_47/n20
*720 sub_47/U19
*721 sub_47/U2_18
*722 sub3\[18\]
*723 sub3_reg\[18\]
*724 sub_47/n4
*725 sub_47/U18
*726 sub_47/U2_2
*727 sub3\[2\]
*728 sub3_reg\[2\]
*729 sub_47/n5
*730 sub_47/U17
*731 sub_47/U2_3
*732 sub3\[3\]
*733 sub3_reg\[3\]
*734 sub_47/n6
*735 sub_47/U16
*736 sub_47/U2_4
*737 sub3\[4\]
*738 sub3_reg\[4\]
*739 sub_47/n7
*740 sub_47/U15
*741 sub_47/U2_5
*742 sub3\[5\]
*743 sub3_reg\[5\]
*744 sub_47/n8
*745 sub_47/U14
*746 sub_47/U2_6
*747 sub3\[6\]
*748 sub3_reg\[6\]
*749 sub_47/n9
*750 sub_47/U13
*751 sub_47/U2_7
*752 sub3\[7\]
*753 sub3_reg\[7\]
*754 sub_47/n10
*755 sub_47/U12
*756 sub_47/U2_8
*757 sub3\[8\]
*758 sub3_reg\[8\]
*759 sub_47/n11
*760 sub_47/U11
*761 sub_47/U2_9
*762 sub3\[9\]
*763 sub3_reg\[9\]
*764 sub_47/n12
*765 sub_47/U10
*766 sub_47/U2_10
*767 sub3\[10\]
*768 sub3_reg\[10\]
*769 sub_47/n13
*770 sub_47/U9
*771 sub_47/U2_11
*772 sub3\[11\]
*773 sub3_reg\[11\]
*774 sub_47/n14
*775 sub_47/U8
*776 sub_47/U2_12
*777 sub3\[12\]
*778 sub3_reg\[12\]
*779 sub_47/n15
*780 sub_47/U7
*781 sub_47/U2_13
*782 sub3\[13\]
*783 sub3_reg\[13\]
*784 sub_47/n16
*785 sub_47/U6
*786 sub_47/U2_14
*787 sub3\[14\]
*788 sub3_reg\[14\]
*789 sub_47/n17
*790 sub_47/U5
*791 sub_47/U2_15
*792 sub3\[15\]
*793 sub3_reg\[15\]
*794 sub_47/n18
*795 sub_47/U4
*796 sub_47/U2_16
*797 sub3\[16\]
*798 sub3_reg\[16\]
*799 sub_47/n19
*800 sub_47/U3
*801 sub_47/U2_17
*802 sub3\[17\]
*803 sub3_reg\[17\]
*804 sub3\[0\]
*805 sub3_reg\[0\]
*806 sub_47/n1
*807 sub_47/U1
*808 sub_47/U2_1
*809 N56
*810 sub3_nxt_reg\[17\]
*811 sub_47/U53
*812 sub2_nxt\[17\]
*813 U196
*814 sub_47/carry\[17\]
*815 sub_47/carry\[18\]
*816 N55
*817 sub3_nxt_reg\[16\]
*818 sub_47/U51
*819 sub2_nxt\[16\]
*820 U194
*821 sub_47/carry\[16\]
*822 N54
*823 sub3_nxt_reg\[15\]
*824 sub_47/U49
*825 sub2_nxt\[15\]
*826 U192
*827 sub_47/carry\[15\]
*828 N53
*829 sub3_nxt_reg\[14\]
*830 sub_47/U48
*831 sub2_nxt\[14\]
*832 U217
*833 sub_47/carry\[14\]
*834 N52
*835 sub3_nxt_reg\[13\]
*836 sub_47/U47
*837 sub2_nxt\[13\]
*838 U215
*839 sub_47/carry\[13\]
*840 N51
*841 sub3_nxt_reg\[12\]
*842 sub_47/U45
*843 sub2_nxt\[12\]
*844 U214
*845 sub_47/carry\[12\]
*846 N50
*847 sub3_nxt_reg\[11\]
*848 sub_47/U43
*849 sub2_nxt\[11\]
*850 U211
*851 sub_47/carry\[11\]
*852 N49
*853 sub3_nxt_reg\[10\]
*854 sub_47/U41
*855 sub2_nxt\[10\]
*856 U126
*857 sub_47/carry\[10\]
*858 N48
*859 sub3_nxt_reg\[9\]
*860 sub_47/U39
*861 sub2_nxt\[9\]
*862 U124
*863 sub_47/carry\[9\]
*864 N47
*865 sub3_nxt_reg\[8\]
*866 sub_47/U37
*867 sub2_nxt\[8\]
*868 U122
*869 sub_47/carry\[8\]
*870 N46
*871 sub3_nxt_reg\[7\]
*872 sub_47/U35
*873 sub2_nxt\[7\]
*874 U120
*875 sub_47/carry\[7\]
*876 N45
*877 sub3_nxt_reg\[6\]
*878 sub_47/U33
*879 sub2_nxt\[6\]
*880 U140
*881 sub_47/carry\[6\]
*882 N44
*883 sub3_nxt_reg\[5\]
*884 sub_47/U31
*885 sub2_nxt\[5\]
*886 U138
*887 sub_47/carry\[5\]
*888 N43
*889 sub3_nxt_reg\[4\]
*890 sub_47/U29
*891 sub2_nxt\[4\]
*892 U136
*893 sub_47/carry\[4\]
*894 N42
*895 sub3_nxt_reg\[3\]
*896 sub_47/U27
*897 sub2_nxt\[3\]
*898 U134
*899 sub_47/carry\[3\]
*900 N41
*901 sub3_nxt_reg\[2\]
*902 sub_47/U25
*903 sub2_nxt\[2\]
*904 U154
*905 sub_47/carry\[2\]
*906 N57
*907 sub3_nxt_reg\[18\]
*908 sub_47/U55
*909 sub2_nxt\[18\]
*910 U198
*911 N40
*912 sub3_nxt_reg\[1\]
*913 sub2_nxt\[1\]
*914 U151
*915 div/N2
*916 div/U10
*917 div/U3
*918 div/count\[2\]
*919 div/count_reg\[2\]
*920 div/U2
*921 div/n2
*922 div/U9
*923 div/count\[0\]
*924 div/count_reg\[0\]
*925 div/U17
*926 div/count\[1\]
*927 div/count_reg\[1\]
*928 div/U14
*929 div/count\[3\]
*930 div/U6
*931 div/count_reg\[3\]
*932 div/count\[4\]
*933 div/U8
*934 div/count_reg\[4\]
*935 div/N19
*936 div/U12
*937 div/r57/carry\[4\]
*938 div/N15
*939 div/U7
*940 div/N18
*941 div/U16
*942 div/r57/carry\[3\]
*943 div/U5
*944 div/N17
*945 div/U1
*946 div/r57/carry\[2\]
*947 div/U4
*948 div/N16
*949 div/U13
*950 div/n1
*951 div/U19
*952 clk_div
*953 div/INVX20_G2B1I1
*954 INVX8_G3B3I1
*955 U2
*956 U1
*957 U3
*958 U4
*959 CTS_clk_CTO_delay10
*960 div/clk_div_reg
*961 sum1_nxt\[0\]
*962 U64
*963 U73
*964 U63
*965 add_12/carry\[1\]
*966 U62
*967 U61
*968 sum1_nxt\[1\]
*969 U71
*970 add_12/carry\[2\]
*971 U60
*972 U59
*973 sum1_nxt\[2\]
*974 U66
*975 add_12/carry\[3\]
*976 sum1_nxt\[3\]
*977 U69
*978 add_12/carry\[4\]
*979 sum1_nxt\[4\]
*980 U184
*981 add_12/carry\[5\]
*982 sum1_nxt\[5\]
*983 U6
*984 add_12/carry\[6\]
*985 sum1_nxt\[6\]
*986 U8
*987 add_12/carry\[7\]
*988 sum1_nxt\[7\]
*989 U178
*990 add_12/carry\[8\]
*991 sum1_nxt\[8\]
*992 U180
*993 add_12/carry\[9\]
*994 sum1_nxt\[9\]
*995 U182
*996 add_12/carry\[10\]
*997 sum1_nxt\[10\]
*998 U174
*999 add_12/carry\[11\]
*1000 sum1_nxt\[11\]
*1001 U176
*1002 add_12/carry\[12\]
*1003 sum1_nxt\[12\]
*1004 U168
*1005 add_12/carry\[13\]
*1006 sum1_nxt\[13\]
*1007 U170
*1008 add_12/carry\[14\]
*1009 sum1_nxt\[14\]
*1010 U172
*1011 add_12/carry\[15\]
*1012 sum1_nxt\[15\]
*1013 U163
*1014 add_12/carry\[16\]
*1015 sum1_nxt\[16\]
*1016 U165
*1017 add_12/carry\[17\]
*1018 sum1_nxt\[17\]
*1019 U161
*1020 add_12/carry\[18\]
*1021 U28
*1022 sum1_nxt\[18\]
*1023 U158
*1024 U27
*1025 n44
*1026 out_reg_reg\[0\]
*1027 U26
*1028 n43
*1029 out_reg_reg\[1\]
*1030 U25
*1031 n42
*1032 out_reg_reg\[2\]
*1033 U24
*1034 n41
*1035 out_reg_reg\[3\]
*1036 U23
*1037 n40
*1038 out_reg_reg\[4\]
*1039 U22
*1040 n39
*1041 out_reg_reg\[5\]
*1042 U21
*1043 n38
*1044 out_reg_reg\[6\]
*1045 U20
*1046 n37
*1047 out_reg_reg\[7\]
*1048 U19
*1049 n36
*1050 out_reg_reg\[8\]
*1051 U18
*1052 n35
*1053 out_reg_reg\[9\]
*1054 U17
*1055 n34
*1056 out_reg_reg\[10\]
*1057 U16
*1058 n33
*1059 out_reg_reg\[11\]
*1060 U15
*1061 n32
*1062 out_reg_reg\[12\]
*1063 U14
*1064 n31
*1065 out_reg_reg\[13\]
*1066 U13
*1067 n30
*1068 out_reg_reg\[14\]
*1069 U12
*1070 n29
*1071 out_reg_reg\[15\]
*1072 U11
*1073 n28
*1074 out_reg_reg\[16\]
*1075 U10
*1076 n27
*1077 out_reg_reg\[17\]
*1078 U9
*1079 n26
*1080 out_reg_reg\[18\]
*1081 sub3_nxt\[18\]
*1082 U113
*1083 sub3_nxt\[17\]
*1084 U111
*1085 sub3_nxt\[16\]
*1086 U109
*1087 sub3_nxt\[15\]
*1088 U107
*1089 sub3_nxt\[14\]
*1090 U105
*1091 sub3_nxt\[13\]
*1092 U103
*1093 sub3_nxt\[12\]
*1094 U101
*1095 sub3_nxt\[11\]
*1096 U99
*1097 sub3_nxt\[10\]
*1098 U97
*1099 sub3_nxt\[9\]
*1100 U95
*1101 sub3_nxt\[8\]
*1102 U93
*1103 sub3_nxt\[7\]
*1104 U91
*1105 sub3_nxt\[6\]
*1106 U88
*1107 sub3_nxt\[5\]
*1108 U86
*1109 sub3_nxt\[4\]
*1110 U84
*1111 sub3_nxt\[3\]
*1112 U82
*1113 sub3_nxt\[2\]
*1114 U80
*1115 sub3_nxt\[1\]
*1116 U78
*1117 sub3_nxt\[0\]
*1118 U76
*1119 n1
*1120 n2
*1121 n3
*1122 n4
*1123 n84
*1124 U79
*1125 n85
*1126 n86
*1127 U81
*1128 n87
*1129 clk_div_G3B4I1
*1130 CLKINVX3_G3B1I1
*1131 n88
*1132 U83
*1133 clk_div_G3B4I2
*1134 CLKINVX3_G3B1I2
*1135 clk_div_G3B4I3
*1136 CLKINVX3_G3B1I3
*1137 clk_div_G3B4I4
*1138 CLKINVX3_G3B1I4
*1139 clk_div_G3B4I5
*1140 CLKINVX3_G3B1I5
*1141 clk_div_G3B4I6
*1142 CLKINVX3_G3B1I6
*1143 clk_div_G3B4I7
*1144 CLKINVX3_G3B1I7
*1145 clk_div_G3B1I1
*1146 clk_G1B3I1
*1147 CLKINVX3_G1B1I1
*1148 clk_G1B3I2
*1149 CLKINVX4_G1B1I2
*1150 clk_G1B3I3
*1151 CLKINVX4_G1B1I3
*1152 clk_G1B2I1
*1153 CLKINVX3_G1B2I1
*1154 CTS_clk_CTO_delay91
*1155 CTS_clk_CTO_delay9
*1156 CTS_clk_CTO_delay101
*1157 CTS_clk_CTO_delay11
*1158 CTS_clk_CTO_delay111
*1159 div/n13
*1160 div/INVX8_G2B1I1
*1161 div/CLKBUFX16_G2IP
*1162 div/clk_div_G2IP
*1163 div/U20
*1164 div/clk_div_G2B1I1
*1165 n66
*1166 U5
*1167 n67
*1168 n68
*1169 U7
*1170 n69
*1171 n70
*1172 n71
*1173 n72
*1174 n73
*1175 U68
*1176 n74
*1177 n75
*1178 add_13/U2
*1179 n76
*1180 n77
*1181 n78
*1182 n79
*1183 n80
*1184 U75
*1185 n81
*1186 n82
*1187 U77
*1188 n83
*1189 n89
*1190 n90
*1191 U85
*1192 n91
*1193 n92
*1194 U87
*1195 n93
*1196 U89
*1197 n94
*1198 n95
*1199 U90
*1200 n96
*1201 n97
*1202 U92
*1203 n98
*1204 n99
*1205 U94
*1206 n100
*1207 n101
*1208 U96
*1209 n102
*1210 n103
*1211 U98
*1212 n104
*1213 n105
*1214 U100
*1215 n106
*1216 n107
*1217 U102
*1218 n108
*1219 n109
*1220 U104
*1221 n110
*1222 n111
*1223 U106
*1224 n112
*1225 n113
*1226 U108
*1227 n114
*1228 n115
*1229 U110
*1230 n116
*1231 n117
*1232 U112
*1233 n118
*1234 n119
*1235 U114
*1236 n120
*1237 n121
*1238 U116
*1239 n122
*1240 n123
*1241 U118
*1242 n124
*1243 U119
*1244 n125
*1245 n126
*1246 U121
*1247 n127
*1248 n128
*1249 U123
*1250 n129
*1251 n130
*1252 U125
*1253 n131
*1254 n132
*1255 n133
*1256 U128
*1257 n134
*1258 U129
*1259 n135
*1260 U130
*1261 n136
*1262 n137
*1263 U132
*1264 n138
*1265 U133
*1266 n139
*1267 n140
*1268 U135
*1269 n141
*1270 n142
*1271 U137
*1272 n143
*1273 n144
*1274 U139
*1275 n145
*1276 n146
*1277 n147
*1278 n148
*1279 n149
*1280 U144
*1281 n150
*1282 n151
*1283 U146
*1284 n152
*1285 U147
*1286 n153
*1287 U149
*1288 n154
*1289 sub_47/U21
*1290 n155
*1291 U150
*1292 n156
*1293 U152
*1294 n157
*1295 n158
*1296 U153
*1297 n159
*1298 n160
*1299 n161
*1300 n162
*1301 U157
*1302 n163
*1303 U159
*1304 n164
*1305 n165
*1306 U160
*1307 n166
*1308 n167
*1309 U162
*1310 n168
*1311 n169
*1312 U164
*1313 n170
*1314 n171
*1315 n172
*1316 U167
*1317 n173
*1318 n174
*1319 U169
*1320 n175
*1321 n176
*1322 U171
*1323 n177
*1324 n178
*1325 U173
*1326 n179
*1327 n180
*1328 U175
*1329 n181
*1330 n182
*1331 U177
*1332 n183
*1333 n184
*1334 U179
*1335 n185
*1336 n186
*1337 U181
*1338 n187
*1339 n188
*1340 U183
*1341 n189
*1342 n190
*1343 U185
*1344 n191
*1345 U186
*1346 n192
*1347 U201
*1348 n193
*1349 U188
*1350 n194
*1351 U202
*1352 n195
*1353 U190
*1354 n196
*1355 U191
*1356 n197
*1357 n198
*1358 U193
*1359 n199
*1360 n200
*1361 U195
*1362 n201
*1363 n202
*1364 U197
*1365 n203
*1366 U199
*1367 n204
*1368 n205
*1369 n206
*1370 n207
*1371 n208
*1372 n209
*1373 U204
*1374 n210
*1375 U205
*1376 n211
*1377 U206
*1378 n212
*1379 U207
*1380 n213
*1381 n214
*1382 U209
*1383 n215
*1384 U210
*1385 n216
*1386 U212
*1387 n217
*1388 n218
*1389 U213
*1390 n219
*1391 n220
*1392 U216
*1393 n221
*1394 n222
*1395 U218
*1396 n223
*1397 n224
*1398 n225
*1399 n226
*1400 n227
*1401 U222
*1402 n228
*1403 add_13/n55
*1404 add_13/n56
*1405 add_13/n47
*1406 add_13/U5
*1407 add_13/n48
*1408 add_13/U7
*1409 add_13/n49
*1410 add_13/U32
*1411 add_13/n50
*1412 add_13/U34
*1413 add_13/n51
*1414 add_13/U36
*1415 add_13/n52
*1416 add_13/U37
*1417 add_13/n53
*1418 add_13/U23
*1419 add_13/n54
*1420 add_13/U25
*1421 add_13/n39
*1422 add_13/U27
*1423 add_13/n40
*1424 add_13/U30
*1425 add_13/n41
*1426 add_13/U16
*1427 add_13/n42
*1428 add_13/U17
*1429 add_13/n43
*1430 add_13/U20
*1431 add_13/n44
*1432 add_13/U21
*1433 add_13/n45
*1434 add_13/U10
*1435 add_13/n46
*1436 add_13/U11
*1437 add_13/n38
*1438 add_13/U14
*1439 add_13/n4
*1440 add_13/n6
*1441 add_13/n9
*1442 add_13/n10
*1443 add_13/n13
*1444 add_13/n15
*1445 add_13/n16
*1446 add_13/n19
*1447 add_13/n20
*1448 add_13/n22
*1449 add_13/n24
*1450 add_13/n26
*1451 add_13/n29
*1452 add_13/n31
*1453 add_13/n33
*1454 add_13/n35
*1455 add_13/n36
*1456 add_14/n57
*1457 add_14/U10
*1458 add_14/n58
*1459 add_14/U8
*1460 add_14/n49
*1461 add_14/U9
*1462 add_14/n50
*1463 add_14/U4
*1464 add_14/n51
*1465 add_14/U12
*1466 add_14/n52
*1467 add_14/U14
*1468 add_14/n53
*1469 add_14/U16
*1470 add_14/n54
*1471 add_14/U40
*1472 add_14/n55
*1473 add_14/U38
*1474 add_14/n56
*1475 add_14/U36
*1476 add_14/n41
*1477 add_14/U34
*1478 add_14/n42
*1479 add_14/U29
*1480 add_14/n43
*1481 add_14/U30
*1482 add_14/n44
*1483 add_14/U31
*1484 add_14/n45
*1485 add_14/U32
*1486 add_14/n46
*1487 add_14/U21
*1488 add_14/n47
*1489 add_14/U22
*1490 add_14/n48
*1491 add_14/U23
*1492 add_14/n40
*1493 add_14/U24
*1494 add_14/n3
*1495 add_14/n7
*1496 add_14/n8
*1497 add_14/n9
*1498 add_14/n11
*1499 add_14/n13
*1500 add_14/n15
*1501 add_14/n20
*1502 add_14/n21
*1503 add_14/n22
*1504 add_14/n23
*1505 add_14/n28
*1506 add_14/n29
*1507 add_14/n30
*1508 add_14/n31
*1509 add_14/n33
*1510 add_14/n35
*1511 add_14/n37
*1512 add_14/n39
*1513 sub_45/n76
*1514 sub_45/U43
*1515 sub_45/n77
*1516 sub_45/U39
*1517 sub_45/n68
*1518 sub_45/U41
*1519 sub_45/n69
*1520 sub_45/U31
*1521 sub_45/n70
*1522 sub_45/U33
*1523 sub_45/n71
*1524 sub_45/U35
*1525 sub_45/n72
*1526 sub_45/U37
*1527 sub_45/n73
*1528 sub_45/U23
*1529 sub_45/n74
*1530 sub_45/U25
*1531 sub_45/n75
*1532 sub_45/U27
*1533 sub_45/n60
*1534 sub_45/U29
*1535 sub_45/n61
*1536 sub_45/U53
*1537 sub_45/n62
*1538 sub_45/U55
*1539 sub_45/n63
*1540 sub_45/U57
*1541 sub_45/n64
*1542 sub_45/U59
*1543 sub_45/n65
*1544 sub_45/U45
*1545 sub_45/n66
*1546 sub_45/U47
*1547 sub_45/n67
*1548 sub_45/U49
*1549 sub_45/n59
*1550 sub_45/U51
*1551 sub_45/n22
*1552 sub_45/n24
*1553 sub_45/n26
*1554 sub_45/n28
*1555 sub_45/n30
*1556 sub_45/n32
*1557 sub_45/n34
*1558 sub_45/n36
*1559 sub_45/n38
*1560 sub_45/n40
*1561 sub_45/n42
*1562 sub_45/n44
*1563 sub_45/n46
*1564 sub_45/n48
*1565 sub_45/n50
*1566 sub_45/n52
*1567 sub_45/n54
*1568 sub_45/n56
*1569 sub_45/n58
*1570 sub_46/n67
*1571 sub_46/U49
*1572 sub_46/n59
*1573 sub_46/U51
*1574 sub_46/n76
*1575 sub_46/U43
*1576 sub_46/n77
*1577 sub_46/U39
*1578 sub_46/n68
*1579 sub_46/U41
*1580 sub_46/n69
*1581 sub_46/U31
*1582 sub_46/n70
*1583 sub_46/U33
*1584 sub_46/n71
*1585 sub_46/U35
*1586 sub_46/n72
*1587 sub_46/U37
*1588 sub_46/n73
*1589 sub_46/U23
*1590 sub_46/n74
*1591 sub_46/U25
*1592 sub_46/n75
*1593 sub_46/U27
*1594 sub_46/n60
*1595 sub_46/U29
*1596 sub_46/n61
*1597 sub_46/U53
*1598 sub_46/n62
*1599 sub_46/U55
*1600 sub_46/n63
*1601 sub_46/U57
*1602 sub_46/n64
*1603 sub_46/U59
*1604 sub_46/n65
*1605 sub_46/U45
*1606 sub_46/n66
*1607 sub_46/U47
*1608 sub_46/n22
*1609 sub_46/n24
*1610 sub_46/n26
*1611 sub_46/n28
*1612 sub_46/n30
*1613 sub_46/n32
*1614 sub_46/n34
*1615 sub_46/n36
*1616 sub_46/n38
*1617 sub_46/n40
*1618 sub_46/n42
*1619 sub_46/n44
*1620 sub_46/n46
*1621 sub_46/n48
*1622 sub_46/n50
*1623 sub_46/n52
*1624 sub_46/n54
*1625 sub_46/n56
*1626 sub_46/n58
*1627 sub_47/n73
*1628 sub_47/n65
*1629 sub_47/U26
*1630 sub_47/n66
*1631 sub_47/U28
*1632 sub_47/n67
*1633 sub_47/U30
*1634 sub_47/n68
*1635 sub_47/U32
*1636 sub_47/n69
*1637 sub_47/U34
*1638 sub_47/n70
*1639 sub_47/U36
*1640 sub_47/n71
*1641 sub_47/U38
*1642 sub_47/n72
*1643 sub_47/U40
*1644 sub_47/n57
*1645 sub_47/U42
*1646 sub_47/n58
*1647 sub_47/U44
*1648 sub_47/n59
*1649 sub_47/U46
*1650 sub_47/n60
*1651 sub_47/n61
*1652 sub_47/n62
*1653 sub_47/U50
*1654 sub_47/n63
*1655 sub_47/U52
*1656 sub_47/n64
*1657 sub_47/U54
*1658 sub_47/n56
*1659 sub_47/U56
*1660 sub_47/n22
*1661 sub_47/n23
*1662 sub_47/n25
*1663 sub_47/n27
*1664 sub_47/n29
*1665 sub_47/n31
*1666 sub_47/n33
*1667 sub_47/n35
*1668 sub_47/n37
*1669 sub_47/n39
*1670 sub_47/n41
*1671 sub_47/n43
*1672 sub_47/n45
*1673 sub_47/n49
*1674 sub_47/n51
*1675 sub_47/n53
*1676 sub_47/n55
*1677 div/n14
*1678 div/n15
*1679 div/n16
*1680 div/U11
*1681 div/n17
*1682 div/n18
*1683 div/n19
*1684 div/n20
*1685 div/U15
*1686 div/n21
*1687 div/n22
*1688 div/U18
*1689 div/n23
*1690 div/n24
*1691 div/n25

*PORTS
*1 O *L 2000.0 *S 0.0 0.0
*2 O *L 2000.0 *S 0.0 0.0
*3 O *L 2000.0 *S 0.0 0.0
*4 O *L 2000.0 *S 0.0 0.0
*5 O *L 2000.0 *S 0.0 0.0
*6 O *L 2000.0 *S 0.0 0.0
*7 I *L 0.0 *S 0.0 0.0
*8 I *L 0.0 *S 0.0 0.0
*9 O *L 2000.0 *S 0.0 0.0
*10 O *L 2000.0 *S 0.0 0.0
*11 O *L 2000.0 *S 0.0 0.0
*12 O *L 2000.0 *S 0.0 0.0
*13 O *L 2000.0 *S 0.0 0.0
*14 O *L 2000.0 *S 0.0 0.0
*15 O *L 2000.0 *S 0.0 0.0
*16 O *L 2000.0 *S 0.0 0.0
*17 I *L 0.0 *S 0.0 0.0
*18 I *L 0.0 *S 0.0 0.0
*19 I *L 0.0 *S 0.0 0.0
*20 O *L 2000.0 *S 0.0 0.0
*21 O *L 2000.0 *S 0.0 0.0
*22 O *L 2000.0 *S 0.0 0.0
*23 O *L 2000.0 *S 0.0 0.0
*24 O *L 2000.0 *S 0.0 0.0

*D_NET *25 0.772722

*CONN
*I *26:D I *L 2.098 *C 74.68 99.0
*I *27:Y O *L 0.0 *D DLY2X1 *C 72.77 93.4
*N *25:3 *C 74.68 99.0
*N *25:4 *C 72.77 93.4
*N *25:5 *C 72.77 99.0

*CAP
1 *26:D 0.0
2 *27:Y 0.0
3 *25:3 0.1003331
4 *25:4 0.2860279
5 *25:5 0.386361

*RES
1 *25:3 *26:D 4.8
2 *25:4 *27:Y 4.8
3 *25:4 *25:5 1.164821
4 *25:5 *25:3 0.3751786

*END

*D_NET *28 3.003971

*CONN
*I *29:A I *L 5.972 *C 67.49 102.36
*I *30:A I *L 3.374 *C 64.19 107.96
*I *26:Q O *L 0.0 *D DFFRHQX1 *C 62.87 99.0
*I *31:A I *L 2.164 *C 53.63 96.76
*N *28:5 *C 53.63 96.76
*N *28:6 *C 53.63 99.0
*N *28:7 *C 53.63 99.0
*N *28:8 *C 64.19 107.96
*N *28:9 *C 62.87 99.0
*N *28:10 *C 62.87 99.0
*N *28:11 *C 64.85 99.56
*N *28:12 *C 64.85 99.56
*N *28:13 *C 67.49 102.36
*N *28:14 *C 67.49 102.36
*N *28:15 *C 64.85 102.36
*N *28:16 *C 64.85 102.36
*N *28:17 *C 64.19 102.36
*N *28:18 *C 62.87 99.56

*CAP
1 *29:A 0.0
2 *30:A 0.0
3 *26:Q 0.0
4 *31:A 0.0
5 *28:5 0.1456278
6 *28:6 0.4571617
7 *28:7 0.1456278
8 *28:8 0.2874626
9 *28:9 0.06916709
10 *28:10 0.5621547
11 *28:11 0.0885779
12 *28:12 0.1427033
13 *28:13 0.07166241
14 *28:14 0.2323054
15 *28:15 0.160643
16 *28:16 0.1858575
17 *28:17 0.3306168
18 *28:18 0.1244037

*RES
1 *28:5 *31:A 4.8
2 *28:6 *28:7 5.9
3 *28:8 *30:A 4.8
4 *28:9 *26:Q 4.8
5 *28:10 *28:9 5.9
6 *28:11 *28:12 5.9
7 *28:13 *29:A 4.8
8 *28:14 *28:13 5.9
9 *28:15 *28:16 5.9
10 *28:5 *28:7 0.5048214
11 *28:17 *28:16 0.1522322
12 *28:17 *28:8 1.109821
13 *28:12 *28:16 0.5775
14 *28:6 *28:10 1.847411
15 *28:10 *28:18 0.1375
16 *28:18 *28:11 0.3987501
17 *28:15 *28:14 0.5932143

*END

*D_NET *32 0.7039465

*CONN
*I *33:Q O *L 0.0 *D DFFRHQX1 *C 63.19 91.16
*I *34:A I *L 2.164 *C 63.53 86.68
*N *32:3 *C 63.19 91.16
*N *32:4 *C 63.53 86.68
*N *32:5 *C 63.53 91.135

*CAP
1 *33:Q 0.0
2 *34:A 0.04891111
3 *32:3 0.05376334
4 *32:4 0.2982099
5 *32:5 0.3030621

*RES
1 *32:3 *33:Q 4.8
2 *32:4 *34:A 4.8
3 *32:3 *32:5 0.1033333
4 *32:4 *32:5 0.8800001

*END

*D_NET *35 1.780466

*CONN
*I *36:Y O *L 0.0 *D AND2X2 *C 62.21 104.6
*I *37:CI I *L 6.627 *C 58.91 113.56
*N *35:3 *C 62.21 104.6
*N *35:4 *C 62.21 104.6
*N *35:5 *C 60.23 104.6
*N *35:6 *C 60.23 104.6
*N *35:7 *C 58.91 113.56
*N *35:8 *C 60.23 113.56

*CAP
1 *36:Y 0.0
2 *37:CI 0.0
3 *35:3 0.0793004
4 *35:4 0.243698
5 *35:5 0.1643976
6 *35:6 0.5292537
7 *35:7 0.1172813